* PSpice Model Editor - Version 16.6.0
*$
*
*DIODES_INC_SPICE_MODEL
*ORIGIN=DZSL_DPG_GM
*SIMULATOR=PSPICE
*DATE=27JAN2011
*VERSION=1
*
.MODEL ZXTN620MA NPN IS =6.5E-13 BF =480 NF=1.003 VAF=150 IKF=1.5
+ISE=2.00E-13 NE=1.42 BR=180 NR=1.0015 VAR=55 IKR=1 ISC=4.00E-12
+NC=1.3 RB=0.04 RE=0.048 RC=0.065 CJE=2.13E-10 CJC=3.30E-11 VJC=0.48
+MJC=0.41 TF =9E-10 TR=3.5E-8
*
*$
